Circuit: * C:\Users\marco\Documents\KiCad\pi-pico-itm39xxc-if\sim\dac-amplifier\noninv-amplifier-dac-a1.asc

Direct Newton iteration for .op point succeeded.
Ignoring empty pin current: Ix(u1:1)
Ignoring empty pin current: Ix(u1:2)
Ignoring empty pin current: Ix(u1:1)
Ignoring empty pin current: Ix(u1:2)

Date: Tue Feb 20 21:57:00 2024
Total elapsed time: 0.092 seconds.

tnom = 27
temp = 27
method = modified trap
totiter = 2093
traniter = 2090
tranpoints = 1046
accept = 1046
rejected = 0
matrix size = 7
fillins = 1
solver = Normal
Matrix Compiler1: 214 bytes object code size  0.1/0.1/[0.1]
Matrix Compiler2: 447 bytes object code size  0.1/0.2/[0.1]

